
     RDKit          3D

  6  6  0  0  0  0  0  0  0  0999 V2000
    0.0000    1.4015   -0.0652 C   0  0  0  0  0  0  0  0  0  0  0  0
    1.1784    0.7703   -0.1225 C   0  0  0  0  0  0  0  0  0  0  0  0
    1.3083   -0.7362    0.1173 C   0  0  0  0  0  0  0  0  0  0  0  0
   -0.0273   -1.4454    0.0754 C   0  0  0  0  0  0  0  0  0  0  0  0
   -1.2873   -0.7489   -0.2630 C   0  0  0  0  0  0  0  0  0  0  0  0
   -1.1721    0.7588    0.2579 C   0  0  0  0  0  0  0  0  0  0  0  0
  1  2  2  0
  2  3  1  0
  3  4  2  0
  4  5  1  0
  5  6  1  0
  6  1  1  0
M  END
$$$$
