-20.03493928
     RDKit          3D

  7  7  0  0  0  0  0  0  0  0999 V2000
   -0.0639   -1.5526   -0.2731 C   0  0  0  0  0  0  0  0  0  0  0  0
    1.1617   -1.0624   -0.3508 C   0  0  0  0  0  0  0  0  0  0  0  0
    1.5792    0.1849    0.3731 C   0  0  0  0  0  0  0  0  0  0  0  0
    0.7786    1.3981   -0.0185 C   0  0  0  0  0  0  0  0  0  0  0  0
   -0.5247    1.4856   -0.2351 C   0  0  0  0  0  0  0  0  0  0  0  0
   -1.5783    0.4222   -0.1494 C   0  0  0  0  0  0  0  0  0  0  0  0
   -1.1373   -0.8795    0.5242 C   0  0  0  0  0  0  0  0  0  0  0  0
  1  7  1  0
  2  1  2  0
  2  3  1  0
  4  3  1  0
  5  6  1  0
  5  4  2  0
  6  7  1  0
M  END
$$$$
