
     RDKit          3D

  9  9  0  0  0  0  0  0  0  0999 V2000
   -0.2199   -1.9086    2.6441 O   0  0  0  0  0  0  0  0  0  0  0  0
   -0.7054   -1.7232    1.5293 C   0  0  0  0  0  0  0  0  0  0  0  0
   -1.5129   -2.8345    0.9289 C   0  0  0  0  0  0  0  0  0  0  0  0
   -0.9984   -2.9922   -0.4911 C   0  0  0  0  0  0  0  0  0  0  0  0
   -0.7800   -1.7836   -1.4294 C   0  0  0  0  0  0  0  0  0  0  0  0
   -2.1756   -1.1570   -1.4084 C   0  0  0  0  0  0  0  0  0  0  0  0
   -0.5943   -2.3524   -2.8376 C   0  0  0  0  0  0  0  0  0  0  0  0
    0.1177   -0.9108   -0.5807 C   0  0  0  0  0  0  0  0  0  0  0  0
   -0.4839   -0.3998    0.7946 C   0  0  0  0  0  0  0  0  0  0  0  0
  1  2  2  0
  2  3  1  0
  3  4  1  0
  4  5  1  0
  5  6  1  0
  5  7  1  0
  5  8  1  0
  8  9  1  0
  9  2  1  0
M  END
$$$$
