mol_43.xyz
     RDKit          3D

  9  9  0  0  0  0  0  0  0  0999 V2000
    1.1062    0.0024    0.2562 O   0  0  0  0  0  0  0  0  0  0  0  0
    2.3255   -0.0366    0.0907 C   0  0  0  0  0  0  0  0  0  0  0  0
    3.0813   -1.3447    0.0899 C   0  0  0  0  0  0  0  0  0  0  0  0
    4.0709   -1.3775   -1.0689 C   0  0  0  0  0  0  0  0  0  0  0  0
    5.0128   -0.1514   -1.0990 C   0  0  0  0  0  0  0  0  0  0  0  0
    5.8787   -0.2190   -2.3704 C   0  0  0  0  0  0  0  0  0  0  0  0
    5.9559   -0.1508    0.1191 C   0  0  0  0  0  0  0  0  0  0  0  0
    4.1574    1.1371   -1.1315 C   0  0  0  0  0  0  0  0  0  0  0  0
    3.1545    1.2247    0.0157 C   0  0  0  0  0  0  0  0  0  0  0  0
  2  1  2  0
  3  2  1  0
  4  3  1  0
  5  4  1  0
  5  7  1  0
  6  5  1  0
  8  5  1  0
  8  9  1  0
  9  2  1  0
M  END
$$$$
