
     RDKit          3D

  6  6  0  0  0  0  0  0  0  0999 V2000
    0.0000    1.3868   -0.0022 C   0  0  0  0  0  0  0  0  0  0  0  0
    1.1951    0.7852    0.0025 C   0  0  0  0  0  0  0  0  0  0  0  0
    1.3400   -0.7389   -0.0026 C   0  0  0  0  0  0  0  0  0  0  0  0
    0.0000   -1.4793    0.0024 C   0  0  0  0  0  0  0  0  0  0  0  0
   -1.3400   -0.7389   -0.0021 C   0  0  0  0  0  0  0  0  0  0  0  0
   -1.1951    0.7852    0.0020 C   0  0  0  0  0  0  0  0  0  0  0  0
  1  2  2  0
  2  3  1  0
  3  4  1  0
  4  5  2  0
  5  6  1  0
  6  1  1  0
M  END
$$$$
