-16.87794462
     RDKit          3D

  6  6  0  0  0  0  0  0  0  0999 V2000
   -0.6604    1.2443   -0.0006 C   0  0  0  0  0  0  0  0  0  0  0  0
    0.6603    1.2443   -0.0005 C   0  0  0  0  0  0  0  0  0  0  0  0
    1.4916    0.0000    0.0008 C   0  0  0  0  0  0  0  0  0  0  0  0
    0.6604   -1.2443   -0.0005 C   0  0  0  0  0  0  0  0  0  0  0  0
   -0.6603   -1.2443   -0.0006 C   0  0  0  0  0  0  0  0  0  0  0  0
   -1.4916   -0.0000    0.0009 C   0  0  0  0  0  0  0  0  0  0  0  0
  1  2  2  0
  1  6  1  0
  2  3  1  0
  4  3  1  0
  5  4  2  0
  5  6  1  0
M  END
$$$$
