
     RDKit          3D

  6  6  0  0  0  0  0  0  0  0999 V2000
   -0.0000    1.4628   -0.2109 C   0  0  0  0  0  0  0  0  0  0  0  0
    1.1951    0.6817    0.2030 C   0  0  0  0  0  0  0  0  0  0  0  0
    1.2572   -0.7278   -0.2148 C   0  0  0  0  0  0  0  0  0  0  0  0
    0.0023   -1.3725    0.2346 C   0  0  0  0  0  0  0  0  0  0  0  0
   -1.2589   -0.7268   -0.2425 C   0  0  0  0  0  0  0  0  0  0  0  0
   -1.1957    0.6826    0.2307 C   0  0  0  0  0  0  0  0  0  0  0  0
  1  2  1  0
  2  3  1  0
  3  4  1  0
  4  5  1  0
  5  6  1  0
  6  1  1  0
M  END
$$$$
