-18.98671587
     RDKit          3D

  6  6  0  0  0  0  0  0  0  0999 V2000
    1.3893    0.4055    0.2417 C   0  0  0  0  0  0  0  0  0  0  0  0
    0.3435    1.4059   -0.2417 C   0  0  0  0  0  0  0  0  0  0  0  0
   -1.0458    1.0004    0.2416 C   0  0  0  0  0  0  0  0  0  0  0  0
   -1.3894   -0.4055   -0.2416 C   0  0  0  0  0  0  0  0  0  0  0  0
   -0.3435   -1.4060    0.2416 C   0  0  0  0  0  0  0  0  0  0  0  0
    1.0459   -1.0004   -0.2416 C   0  0  0  0  0  0  0  0  0  0  0  0
  2  3  1  0
  2  1  1  0
  4  5  1  0
  4  3  1  0
  6  5  1  0
  6  1  1  0
M  END
$$$$
