
     RDKit          3D

  8  8  0  0  0  0  0  0  0  0999 V2000
    0.0000    1.5943   -0.3647 C   0  0  0  0  0  0  0  0  0  0  0  0
    1.1354    0.8849   -0.3426 C   0  0  0  0  0  0  0  0  0  0  0  0
    1.4162   -0.3097    0.5728 C   0  0  0  0  0  0  0  0  0  0  0  0
    0.6493   -1.4703   -0.0666 C   0  0  0  0  0  0  0  0  0  0  0  0
   -0.5722   -1.3518   -0.3208 C   0  0  0  0  0  0  0  0  0  0  0  0
   -1.4726   -0.2665   -0.0371 C   0  0  0  0  0  0  0  0  0  0  0  0
   -1.1562    0.9192    0.5590 C   0  0  2  0  0  0  0  0  0  0  0  0
   -2.4868    1.6742    0.5413 C   0  0  0  0  0  0  0  0  0  0  0  0
  1  2  2  0
  2  3  1  0
  3  4  1  0
  4  5  2  0
  5  6  1  0
  6  7  1  0
  7  8  1  6
  7  1  1  0
M  END
$$$$
