
 OpenBabel09042015103D

  7  7  0  0  0  0  0  0  0  0999 V2000
   -0.0000    1.6023    0.1294 C   0  0  0  0  0  0  0  0  0  0  0  0
    1.3922    1.0289   -0.1426 C   0  0  0  0  0  0  0  0  0  0  0  0
    1.5908   -0.3884    0.3983 C   0  0  0  0  0  0  0  0  0  0  0  0
    0.6687   -1.3145   -0.3973 C   0  0  0  0  0  0  0  0  0  0  0  0
   -0.7536   -1.4732   -0.0323 C   0  0  0  0  0  0  0  0  0  0  0  0
   -1.5252   -0.4391    0.4334 C   0  0  0  0  0  0  0  0  0  0  0  0
   -1.3728    0.9840   -0.3889 C   0  0  0  0  0  0  0  0  0  0  0  0
  1  2  1  0  0  0  0
  2  3  1  0  0  0  0
  3  4  1  0  0  0  0
  4  5  1  0  0  0  0
  5  6  1  0  0  0  0
  6  7  1  0  0  0  0
  7  1  1  0  0  0  0
M  END
$$$$
