
     RDKit          3D

  7  7  0  0  0  0  0  0  0  0999 V2000
   -0.0000    1.1748    0.0055 C   0  0  0  0  0  0  0  0  0  0  0  0
    1.1273    0.4524   -0.0059 C   0  0  0  0  0  0  0  0  0  0  0  0
    0.7675   -1.0398    0.0040 C   0  0  0  0  0  0  0  0  0  0  0  0
    1.4883   -2.0364    0.0136 O   0  0  0  0  0  0  0  0  0  0  0  0
   -0.7675   -1.0398   -0.0006 C   0  0  0  0  0  0  0  0  0  0  0  0
   -1.6148   -1.9314   -0.0024 O   0  0  0  0  0  0  0  0  0  0  0  0
   -1.1273    0.4524   -0.0030 C   0  0  0  0  0  0  0  0  0  0  0  0
  1  2  2  0
  2  3  1  0
  3  4  2  0
  3  5  1  0
  5  6  2  0
  5  7  1  0
  7  1  1  0
M  END
$$$$
