-20.81523236
     RDKit          3D

  7  7  0  0  0  0  0  0  0  0999 V2000
   -1.6438   -0.3998   -0.0000 C   0  0  0  0  0  0  0  0  0  0  0  0
   -0.6821   -1.3244   -0.0000 C   0  0  0  0  0  0  0  0  0  0  0  0
    0.6465   -0.7034    0.0000 C   0  0  0  0  0  0  0  0  0  0  0  0
    1.7289   -1.2307    0.0000 O   0  0  0  0  0  0  0  0  0  0  0  0
    0.3869    0.8203    0.0000 C   0  0  0  0  0  0  0  0  0  0  0  0
    1.2193    1.6809   -0.0001 O   0  0  0  0  0  0  0  0  0  0  0  0
   -1.1200    0.9991    0.0001 C   0  0  0  0  0  0  0  0  0  0  0  0
  1  2  2  0
  1  7  1  0
  2  3  1  0
  3  5  1  0
  3  4  2  0
  5  7  1  0
  6  5  2  0
M  END
$$$$
