-20.04116061
     RDKit          3D

  7  7  0  0  0  0  0  0  0  0999 V2000
   -1.6535    0.1792   -0.0410 C   0  0  0  0  0  0  0  0  0  0  0  0
   -1.2628   -1.0847    0.1255 C   0  0  0  0  0  0  0  0  0  0  0  0
    0.0663   -1.6501    0.0176 C   0  0  0  0  0  0  0  0  0  0  0  0
    1.2518   -1.0523   -0.1107 C   0  0  0  0  0  0  0  0  0  0  0  0
    1.5884    0.4034   -0.1211 C   0  0  0  0  0  0  0  0  0  0  0  0
    0.5327    1.3324    0.4651 C   0  0  0  0  0  0  0  0  0  0  0  0
   -0.7744    1.3528   -0.3296 C   0  0  0  0  0  0  0  0  0  0  0  0
  1  2  2  0
  3  2  1  0
  4  3  2  0
  5  4  1  0
  5  6  1  0
  7  1  1  0
  7  6  1  0
M  END
$$$$
