
     RDKit          3D

  6  6  0  0  0  0  0  0  0  0999 V2000
   -0.0000    1.3953   -0.0478 C   0  0  0  0  0  0  0  0  0  0  0  0
    1.1843    0.7865    0.0608 C   0  0  0  0  0  0  0  0  0  0  0  0
    1.3137   -0.7374    0.1307 C   0  0  0  0  0  0  0  0  0  0  0  0
   -0.0316   -1.4649   -0.3352 C   0  0  0  0  0  0  0  0  0  0  0  0
   -1.2891   -0.7524    0.3482 C   0  0  0  0  0  0  0  0  0  0  0  0
   -1.1772    0.7729   -0.1568 C   0  0  0  0  0  0  0  0  0  0  0  0
  1  2  2  0
  2  3  1  0
  3  4  1  0
  4  5  1  0
  5  6  1  0
  6  1  1  0
M  END
$$$$
