-17.93143890
     RDKit          3D

  6  6  0  0  0  0  0  0  0  0999 V2000
   -1.4841    0.0531   -0.1148 C   0  0  0  0  0  0  0  0  0  0  0  0
   -0.6593    1.3020   -0.0521 C   0  0  0  0  0  0  0  0  0  0  0  0
    0.6588    1.3023    0.0520 C   0  0  0  0  0  0  0  0  0  0  0  0
    1.4840    0.0536    0.1152 C   0  0  0  0  0  0  0  0  0  0  0  0
    0.6834   -1.1642   -0.3386 C   0  0  0  0  0  0  0  0  0  0  0  0
   -0.6828   -1.1646    0.3383 C   0  0  0  0  0  0  0  0  0  0  0  0
  1  2  1  0
  1  6  1  0
  2  3  2  0
  3  4  1  0
  5  4  1  0
  5  6  1  0
M  END
$$$$
