
     RDKit          3D

  7  7  0  0  0  0  0  0  0  0999 V2000
   -0.0000    1.3683   -0.0007 C   0  0  0  0  0  0  0  0  0  0  0  0
    1.2072    0.7959    0.0005 C   0  0  0  0  0  0  0  0  0  0  0  0
    1.3242   -0.7306    0.0022 C   0  0  0  0  0  0  0  0  0  0  0  0
    2.3941   -1.3373    0.0087 O   0  0  0  0  0  0  0  0  0  0  0  0
   -0.0000   -1.4990   -0.0047 C   0  0  0  0  0  0  0  0  0  0  0  0
   -1.3242   -0.7306    0.0045 C   0  0  0  0  0  0  0  0  0  0  0  0
   -1.2072    0.7959   -0.0017 C   0  0  0  0  0  0  0  0  0  0  0  0
  1  2  2  0
  2  3  1  0
  3  4  2  0
  3  5  1  0
  5  6  2  0
  6  7  1  0
  7  1  1  0
M  END
$$$$
